/*--------------------------------*- C++ -*----------------------------------*\
| =========                 |                                                 |
| \\      /  F ield         | OpenFOAM: The Open Source CFD Toolbox           |
|  \\    /   O peration     | Version:  2206                                  |
|   \\  /    A nd           | Website:  www.openfoam.com                      |
|    \\/     M anipulation  |                                                 |
\*---------------------------------------------------------------------------*/
FoamFile
{
    version     2.0;
    format      ascii;
    arch        "LSB;label=32;scalar=64";
    class       volScalarField;
    location    "0";
    object      k;
}
// * * * * * * * * * * * * * * * * * * * * * * * * * * * * * * * * * * * * * //

dimensions      [0 2 -2 0 0 0 0];

internalField   uniform 0.000216;

boundaryField
{
    stationaryWalls
    {
        type            kqRWallFunction;
        value           uniform 0.000216;
    }
    inlet
    {
        type            fixedValue;
        value           uniform 0.000216;
    }
    outlet
    {
        type            inletOutlet;
        inletValue      uniform 0.000216;
        value           uniform 0.000216;
    }
    sidePatch
    {
        type            symmetry;
    }
    atmosphere
    {
        type            inletOutlet;
        inletValue      uniform 0.000216;
        value           uniform 0.000216;
    }
    floatingObject
    {
        type            kqRWallFunction;
        value           uniform 0.000216;
    }
}


// ************************************************************************* //
